03_OpenDSS_Circuits/Flay_Circuit_Opendss/Loads_Daily.dss
New Load.259529045_1 Phases= 1 Bus1=259529045.1 kV=7.1996 XFKVA=25.000000 PF= 0.98 status=variable Vminpu=0.7 yearly=LS_PhaseA daily=LS_PhaseA duty=LS_PhaseA
New Load.258425092_2 Phases= 1 Bus1=258425092.2 kV=7.1996 XFKVA=10.000000 PF= 0.98 status=variable Vminpu=0.7 yearly=LS_PhaseB daily=LS_PhaseB duty=LS_PhaseB
New Load.258425010_3 Phases= 1 Bus1=258425010.3 kV=7.1996 XFKVA=50.000000 PF= 0.98 status=variable Vminpu=0.7 yearly=LS_PhaseC daily=LS_PhaseC duty=LS_PhaseC
New Load.260005788_1 Phases= 1 Bus1=260005788.1 kV=7.1996 XFKVA=50.000000 PF= 0.98 status=variable Vminpu=0.7 yearly=LS_PhaseA daily=LS_PhaseA duty=LS_PhaseA
New Load.258406113_1 Phases= 1 Bus1=258406113.1 kV=7.1996 XFKVA=25.000000 PF= 0.98 status=variable Vminpu=0.7 yearly=LS_PhaseA daily=LS_PhaseA duty=LS_PhaseA
New Load.258406193_3 Phases= 1 Bus1=258406193.3 kV=7.1996 XFKVA=25.000000 PF= 0.98 status=variable Vminpu=0.7 yearly=LS_PhaseC daily=LS_PhaseC duty=LS_PhaseC
New Load.258425015_3 Phases= 1 Bus1=258425015.3 kV=7.1996 XFKVA=50.000000 PF= 0.98 status=variable Vminpu=0.7 yearly=LS_PhaseC daily=LS_PhaseC duty=LS_PhaseC
New Load.263395453_1 Phases= 1 Bus1=263395453.1 kV=7.1996 XFKVA=25.000000 PF= 0.98 status=variable Vminpu=0.7 yearly=LS_PhaseA daily=LS_PhaseA duty=LS_PhaseA
New Load.258425192_1 Phases= 1 Bus1=258425192.1 kV=7.1996 XFKVA=10.000000 PF= 0.98 status=variable Vminpu=0.7 yearly=LS_PhaseA daily=LS_PhaseA duty=LS_PhaseA
New Load.258425192_2 Phases= 1 Bus1=258425192.2 kV=7.1996 XFKVA=10.000000 PF= 0.98 status=variable Vminpu=0.7 yearly=LS_PhaseB daily=LS_PhaseB duty=LS_PhaseB
New Load.258425192_3 Phases= 1 Bus1=258425192.3 kV=7.1996 XFKVA=10.000000 PF= 0.98 status=variable Vminpu=0.7 yearly=LS_PhaseC daily=LS_PhaseC duty=LS_PhaseC
New Load.258425112_2 Phases= 1 Bus1=258425112.2 kV=7.1996 XFKVA=25.000000 PF= 0.98 status=variable Vminpu=0.7 yearly=LS_PhaseB daily=LS_PhaseB duty=LS_PhaseB
New Load.260664691_2 Phases= 1 Bus1=260664691.2 kV=7.1996 XFKVA=25.000000 PF= 0.98 status=variable Vminpu=0.7 yearly=LS_PhaseB daily=LS_PhaseB duty=LS_PhaseB
New Load.258425102_2 Phases= 1 Bus1=258425102.2 kV=7.1996 XFKVA=10.000000 PF= 0.98 status=variable Vminpu=0.7 yearly=LS_PhaseB daily=LS_PhaseB duty=LS_PhaseB
New Load.263391391_1 Phases= 1 Bus1=263391391.1 kV=7.1996 XFKVA=25.000000 PF= 0.98 status=variable Vminpu=0.7 yearly=LS_PhaseA daily=LS_PhaseA duty=LS_PhaseA
New Load.263395255_1 Phases= 1 Bus1=263395255.1 kV=7.1996 XFKVA=25.000000 PF= 0.98 status=variable Vminpu=0.7 yearly=LS_PhaseA daily=LS_PhaseA duty=LS_PhaseA
New Load.263395255_2 Phases= 1 Bus1=263395255.2 kV=7.1996 XFKVA=25.000000 PF= 0.98 status=variable Vminpu=0.7 yearly=LS_PhaseB daily=LS_PhaseB duty=LS_PhaseB
New Load.263395255_3 Phases= 1 Bus1=263395255.3 kV=7.1996 XFKVA=25.000000 PF= 0.98 status=variable Vminpu=0.7 yearly=LS_PhaseC daily=LS_PhaseC duty=LS_PhaseC
New Load.263395372_3 Phases= 1 Bus1=263395372.3 kV=7.1996 XFKVA=25.000000 PF= 0.98 status=variable Vminpu=0.7 yearly=LS_PhaseC daily=LS_PhaseC duty=LS_PhaseC
New Load.263733246_3 Phases= 1 Bus1=263733246.3 kV=7.1996 XFKVA=25.000000 PF= 0.98 status=variable Vminpu=0.7 yearly=LS_PhaseC daily=LS_PhaseC duty=LS_PhaseC
New Load.258424969_3 Phases= 1 Bus1=258424969.3 kV=7.1996 XFKVA=25.000000 PF= 0.98 status=variable Vminpu=0.7 yearly=LS_PhaseC daily=LS_PhaseC duty=LS_PhaseC
New Load.258425872_1 Phases= 1 Bus1=258425872.1 kV=7.1996 XFKVA=15.000000 PF= 0.98 status=variable Vminpu=0.7 yearly=LS_PhaseA daily=LS_PhaseA duty=LS_PhaseA
New Load.258443861_3 Phases= 1 Bus1=258443861.3 kV=7.1996 XFKVA=25.000000 PF= 0.98 status=variable Vminpu=0.7 yearly=LS_PhaseC daily=LS_PhaseC duty=LS_PhaseC
New Load.263755757_2 Phases= 1 Bus1=263755757.2 kV=7.1996 XFKVA=25.000000 PF= 0.98 status=variable Vminpu=0.7 yearly=LS_PhaseB daily=LS_PhaseB duty=LS_PhaseB
New Load.263395408_1 Phases= 1 Bus1=263395408.1 kV=7.1996 XFKVA=25.000000 PF= 0.98 status=variable Vminpu=0.7 yearly=LS_PhaseA daily=LS_PhaseA duty=LS_PhaseA
New Load.426195270_3 Phases= 1 Bus1=426195270.3 kV=7.1996 XFKVA=25.000000 PF= 0.98 status=variable Vminpu=0.7 yearly=LS_PhaseC daily=LS_PhaseC duty=LS_PhaseC
New Load.263733345_3 Phases= 1 Bus1=263733345.3 kV=7.1996 XFKVA=25.000000 PF= 0.98 status=variable Vminpu=0.7 yearly=LS_PhaseC daily=LS_PhaseC duty=LS_PhaseC
New Load.263395228_3 Phases= 1 Bus1=263395228.3 kV=7.1996 XFKVA=10.000000 PF= 0.98 status=variable Vminpu=0.7 yearly=LS_PhaseC daily=LS_PhaseC duty=LS_PhaseC
New Load.263998651_3 Phases= 1 Bus1=263998651.3 kV=7.1996 XFKVA=15.000000 PF= 0.98 status=variable Vminpu=0.7 yearly=LS_PhaseC daily=LS_PhaseC duty=LS_PhaseC
New Load.258425972_3 Phases= 1 Bus1=258425972.3 kV=7.1996 XFKVA=50.000000 PF= 0.98 status=variable Vminpu=0.7 yearly=LS_PhaseC daily=LS_PhaseC duty=LS_PhaseC
New Load.258424954_1 Phases= 1 Bus1=258424954.1 kV=7.1996 XFKVA=25.000000 PF= 0.98 status=variable Vminpu=0.7 yearly=LS_PhaseA daily=LS_PhaseA duty=LS_PhaseA
New Load.263395336_3 Phases= 1 Bus1=263395336.3 kV=7.1996 XFKVA=15.000000 PF= 0.98 status=variable Vminpu=0.7 yearly=LS_PhaseC daily=LS_PhaseC duty=LS_PhaseC
New Load.260662951_3 Phases= 1 Bus1=260662951.3 kV=7.1996 XFKVA=50.000000 PF= 0.98 status=variable Vminpu=0.7 yearly=LS_PhaseC daily=LS_PhaseC duty=LS_PhaseC
New Load.260663855_2 Phases= 1 Bus1=260663855.2 kV=7.1996 XFKVA=25.000000 PF= 0.98 status=variable Vminpu=0.7 yearly=LS_PhaseB daily=LS_PhaseB duty=LS_PhaseB
New Load.263395327_2 Phases= 1 Bus1=263395327.2 kV=7.1996 XFKVA=25.000000 PF= 0.98 status=variable Vminpu=0.7 yearly=LS_PhaseB daily=LS_PhaseB duty=LS_PhaseB
New Load.258425827_1 Phases= 1 Bus1=258425827.1 kV=7.1996 XFKVA=25.000000 PF= 0.98 status=variable Vminpu=0.7 yearly=LS_PhaseA daily=LS_PhaseA duty=LS_PhaseA
New Load.258425473_3 Phases= 1 Bus1=258425473.3 kV=7.1996 XFKVA=25.000000 PF= 0.98 status=variable Vminpu=0.7 yearly=LS_PhaseC daily=LS_PhaseC duty=LS_PhaseC
New Load.264148864_2 Phases= 1 Bus1=264148864.2 kV=7.1996 XFKVA=50.000000 PF= 0.98 status=variable Vminpu=0.7 yearly=LS_PhaseB daily=LS_PhaseB duty=LS_PhaseB
New Load.260663850_2 Phases= 1 Bus1=260663850.2 kV=7.1996 XFKVA=25.000000 PF= 0.98 status=variable Vminpu=0.7 yearly=LS_PhaseB daily=LS_PhaseB duty=LS_PhaseB
New Load.263395210_1 Phases= 1 Bus1=263395210.1 kV=7.1996 XFKVA=25.000000 PF= 0.98 status=variable Vminpu=0.7 yearly=LS_PhaseA daily=LS_PhaseA duty=LS_PhaseA
New Load.263395291_3 Phases= 1 Bus1=263395291.3 kV=7.1996 XFKVA=25.000000 PF= 0.98 status=variable Vminpu=0.7 yearly=LS_PhaseC daily=LS_PhaseC duty=LS_PhaseC
New Load.259471071_3 Phases= 1 Bus1=259471071.3 kV=7.1996 XFKVA=25.000000 PF= 0.98 status=variable Vminpu=0.7 yearly=LS_PhaseC daily=LS_PhaseC duty=LS_PhaseC
New Load.258425942_2 Phases= 1 Bus1=258425942.2 kV=7.1996 XFKVA=10.000000 PF= 0.98 status=variable Vminpu=0.7 yearly=LS_PhaseB daily=LS_PhaseB duty=LS_PhaseB
New Load.258424934_1 Phases= 1 Bus1=258424934.1 kV=7.1996 XFKVA=15.000000 PF= 0.98 status=variable Vminpu=0.7 yearly=LS_PhaseA daily=LS_PhaseA duty=LS_PhaseA
New Load.263733318_2 Phases= 1 Bus1=263733318.2 kV=7.1996 XFKVA=25.000000 PF= 0.98 status=variable Vminpu=0.7 yearly=LS_PhaseB daily=LS_PhaseB duty=LS_PhaseB
New Load.615922967_3 Phases= 1 Bus1=615922967.3 kV=7.1996 XFKVA=25.000000 PF= 0.98 status=variable Vminpu=0.7 yearly=LS_PhaseC daily=LS_PhaseC duty=LS_PhaseC
New Load.258425946_1 Phases= 1 Bus1=258425946.1 kV=7.1996 XFKVA=10.000000 PF= 0.98 status=variable Vminpu=0.7 yearly=LS_PhaseA daily=LS_PhaseA duty=LS_PhaseA
New Load.258425946_3 Phases= 1 Bus1=258425946.3 kV=7.1996 XFKVA=10.000000 PF= 0.98 status=variable Vminpu=0.7 yearly=LS_PhaseC daily=LS_PhaseC duty=LS_PhaseC
New Load.258425832_1 Phases= 1 Bus1=258425832.1 kV=7.1996 XFKVA=25.000000 PF= 0.98 status=variable Vminpu=0.7 yearly=LS_PhaseA daily=LS_PhaseA duty=LS_PhaseA
New Load.263395309_3 Phases= 1 Bus1=263395309.3 kV=7.1996 XFKVA=25.000000 PF= 0.98 status=variable Vminpu=0.7 yearly=LS_PhaseC daily=LS_PhaseC duty=LS_PhaseC
New Load.263395390_1 Phases= 1 Bus1=263395390.1 kV=7.1996 XFKVA=25.000000 PF= 0.98 status=variable Vminpu=0.7 yearly=LS_PhaseA daily=LS_PhaseA duty=LS_PhaseA
New Load.260663835_2 Phases= 1 Bus1=260663835.2 kV=7.1996 XFKVA=25.000000 PF= 0.98 status=variable Vminpu=0.7 yearly=LS_PhaseB daily=LS_PhaseB duty=LS_PhaseB
New Load.260662896_2 Phases= 1 Bus1=260662896.2 kV=7.1996 XFKVA=25.000000 PF= 0.98 status=variable Vminpu=0.7 yearly=LS_PhaseB daily=LS_PhaseB duty=LS_PhaseB
New Load.263733282_1 Phases= 1 Bus1=263733282.1 kV=7.1996 XFKVA=25.000000 PF= 0.98 status=variable Vminpu=0.7 yearly=LS_PhaseA daily=LS_PhaseA duty=LS_PhaseA
New Load.259596203_1 Phases= 1 Bus1=259596203.1 kV=7.1996 XFKVA=15.000000 PF= 0.98 status=variable Vminpu=0.7 yearly=LS_PhaseA daily=LS_PhaseA duty=LS_PhaseA
New Load.261434126_2 Phases= 1 Bus1=261434126.2 kV=7.1996 XFKVA=50.000000 PF= 0.98 status=variable Vminpu=0.7 yearly=LS_PhaseB daily=LS_PhaseB duty=LS_PhaseB
New Load.258443654_2 Phases= 1 Bus1=258443654.2 kV=7.1996 XFKVA=10.000000 PF= 0.98 status=variable Vminpu=0.7 yearly=LS_PhaseB daily=LS_PhaseB duty=LS_PhaseB
New Load.261434117_2 Phases= 1 Bus1=261434117.2 kV=7.1996 XFKVA=50.000000 PF= 0.98 status=variable Vminpu=0.7 yearly=LS_PhaseB daily=LS_PhaseB duty=LS_PhaseB
New Load.258405868_1 Phases= 1 Bus1=258405868.1 kV=7.1996 XFKVA=25.000000 PF= 0.98 status=variable Vminpu=0.7 yearly=LS_PhaseA daily=LS_PhaseA duty=LS_PhaseA
New Load.264148846_3 Phases= 1 Bus1=264148846.3 kV=7.1996 XFKVA=50.000000 PF= 0.98 status=variable Vminpu=0.7 yearly=LS_PhaseC daily=LS_PhaseC duty=LS_PhaseC
New Load.258425932_3 Phases= 1 Bus1=258425932.3 kV=7.1996 XFKVA=25.000000 PF= 0.98 status=variable Vminpu=0.7 yearly=LS_PhaseC daily=LS_PhaseC duty=LS_PhaseC
New Load.258424981_2 Phases= 1 Bus1=258424981.2 kV=7.1996 XFKVA=25.000000 PF= 0.98 status=variable Vminpu=0.7 yearly=LS_PhaseB daily=LS_PhaseB duty=LS_PhaseB
New Load.258443634_1 Phases= 1 Bus1=258443634.1 kV=7.1996 XFKVA=10.000000 PF= 0.98 status=variable Vminpu=0.7 yearly=LS_PhaseA daily=LS_PhaseA duty=LS_PhaseA
New Load.258443634_2 Phases= 1 Bus1=258443634.2 kV=7.1996 XFKVA=10.000000 PF= 0.98 status=variable Vminpu=0.7 yearly=LS_PhaseB daily=LS_PhaseB duty=LS_PhaseB
New Load.258443634_3 Phases= 1 Bus1=258443634.3 kV=7.1996 XFKVA=10.000000 PF= 0.98 status=variable Vminpu=0.7 yearly=LS_PhaseC daily=LS_PhaseC duty=LS_PhaseC
New Load.259474274_3 Phases= 1 Bus1=259474274.3 kV=7.1996 XFKVA=15.000000 PF= 0.98 status=variable Vminpu=0.7 yearly=LS_PhaseC daily=LS_PhaseC duty=LS_PhaseC
New Load.263399247_1 Phases= 1 Bus1=263399247.1 kV=7.1996 XFKVA=75.000000 PF= 0.98 status=variable Vminpu=0.7 yearly=LS_PhaseA daily=LS_PhaseA duty=LS_PhaseA
New Load.258443763_3 Phases= 1 Bus1=258443763.3 kV=7.1996 XFKVA=25.000000 PF= 0.98 status=variable Vminpu=0.7 yearly=LS_PhaseC daily=LS_PhaseC duty=LS_PhaseC
New Load.258425887_2 Phases= 1 Bus1=258425887.2 kV=7.1996 XFKVA=25.000000 PF= 0.98 status=variable Vminpu=0.7 yearly=LS_PhaseB daily=LS_PhaseB duty=LS_PhaseB
New Load.258424993_3 Phases= 1 Bus1=258424993.3 kV=7.1996 XFKVA=10.000000 PF= 0.98 status=variable Vminpu=0.7 yearly=LS_PhaseC daily=LS_PhaseC duty=LS_PhaseC
New Load.260663810_1 Phases= 1 Bus1=260663810.1 kV=7.1996 XFKVA=25.000000 PF= 0.98 status=variable Vminpu=0.7 yearly=LS_PhaseA daily=LS_PhaseA duty=LS_PhaseA
New Load.263399355_3 Phases= 1 Bus1=263399355.3 kV=7.1996 XFKVA=15.000000 PF= 0.98 status=variable Vminpu=0.7 yearly=LS_PhaseC daily=LS_PhaseC duty=LS_PhaseC
New Load.261433687_3 Phases= 1 Bus1=261433687.3 kV=7.1996 XFKVA=75.000000 PF= 0.98 status=variable Vminpu=0.7 yearly=LS_PhaseC daily=LS_PhaseC duty=LS_PhaseC
New Load.258443643_2 Phases= 1 Bus1=258443643.2 kV=7.1996 XFKVA=25.000000 PF= 0.98 status=variable Vminpu=0.7 yearly=LS_PhaseB daily=LS_PhaseB duty=LS_PhaseB
New Load.259149287_3 Phases= 1 Bus1=259149287.3 kV=7.1996 XFKVA=50.000000 PF= 0.98 status=variable Vminpu=0.7 yearly=LS_PhaseC daily=LS_PhaseC duty=LS_PhaseC
New Load.261434097_3 Phases= 1 Bus1=261434097.3 kV=7.1996 XFKVA=50.000000 PF= 0.98 status=variable Vminpu=0.7 yearly=LS_PhaseC daily=LS_PhaseC duty=LS_PhaseC
New Load.258425994_1 Phases= 1 Bus1=258425994.1 kV=7.1996 XFKVA=25.000000 PF= 0.98 status=variable Vminpu=0.7 yearly=LS_PhaseA daily=LS_PhaseA duty=LS_PhaseA
New Load.263395192_3 Phases= 1 Bus1=263395192.3 kV=7.1996 XFKVA=25.000000 PF= 0.98 status=variable Vminpu=0.7 yearly=LS_PhaseC daily=LS_PhaseC duty=LS_PhaseC
New Load.258443464_2 Phases= 1 Bus1=258443464.2 kV=7.1996 XFKVA=10.000000 PF= 0.98 status=variable Vminpu=0.7 yearly=LS_PhaseB daily=LS_PhaseB duty=LS_PhaseB
New Load.258425897_2 Phases= 1 Bus1=258425897.2 kV=7.1996 XFKVA=25.000000 PF= 0.98 status=variable Vminpu=0.7 yearly=LS_PhaseB daily=LS_PhaseB duty=LS_PhaseB
New Load.263399175_2 Phases= 1 Bus1=263399175.2 kV=7.1996 XFKVA=25.000000 PF= 0.98 status=variable Vminpu=0.7 yearly=LS_PhaseB daily=LS_PhaseB duty=LS_PhaseB
New Load.258425907_3 Phases= 1 Bus1=258425907.3 kV=7.1996 XFKVA=5.000000 PF= 0.98 status=variable Vminpu=0.7 yearly=LS_PhaseC daily=LS_PhaseC duty=LS_PhaseC
New Load.258405953_3 Phases= 1 Bus1=258405953.3 kV=7.1996 XFKVA=25.000000 PF= 0.98 status=variable Vminpu=0.7 yearly=LS_PhaseC daily=LS_PhaseC duty=LS_PhaseC
New Load.258443744_3 Phases= 1 Bus1=258443744.3 kV=7.1996 XFKVA=25.000000 PF= 0.98 status=variable Vminpu=0.7 yearly=LS_PhaseC daily=LS_PhaseC duty=LS_PhaseC
New Load.491242313_2 Phases= 1 Bus1=491242313.2 kV=7.1996 XFKVA=37.500000 PF= 0.98 status=variable Vminpu=0.7 yearly=LS_PhaseB daily=LS_PhaseB duty=LS_PhaseB
New Load.258443739_3 Phases= 1 Bus1=258443739.3 kV=7.1996 XFKVA=50.000000 PF= 0.98 status=variable Vminpu=0.7 yearly=LS_PhaseC daily=LS_PhaseC duty=LS_PhaseC
New Load.258444159_3 Phases= 1 Bus1=258444159.3 kV=7.1996 XFKVA=25.000000 PF= 0.98 status=variable Vminpu=0.7 yearly=LS_PhaseC daily=LS_PhaseC duty=LS_PhaseC
New Load.258405948_3 Phases= 1 Bus1=258405948.3 kV=7.1996 XFKVA=10.000000 PF= 0.98 status=variable Vminpu=0.7 yearly=LS_PhaseC daily=LS_PhaseC duty=LS_PhaseC
New Load.258443584_1 Phases= 1 Bus1=258443584.1 kV=7.1996 XFKVA=15.000000 PF= 0.98 status=variable Vminpu=0.7 yearly=LS_PhaseA daily=LS_PhaseA duty=LS_PhaseA
New Load.617401567_2 Phases= 1 Bus1=617401567.2 kV=7.1996 XFKVA=50.000000 PF= 0.98 status=variable Vminpu=0.7 yearly=LS_PhaseB daily=LS_PhaseB duty=LS_PhaseB
New Load.258443614_3 Phases= 1 Bus1=258443614.3 kV=7.1996 XFKVA=25.000000 PF= 0.98 status=variable Vminpu=0.7 yearly=LS_PhaseC daily=LS_PhaseC duty=LS_PhaseC
New Load.258405828_3 Phases= 1 Bus1=258405828.3 kV=7.1996 XFKVA=25.000000 PF= 0.98 status=variable Vminpu=0.7 yearly=LS_PhaseC daily=LS_PhaseC duty=LS_PhaseC
New Load.258443444_1 Phases= 1 Bus1=258443444.1 kV=7.1996 XFKVA=15.000000 PF= 0.98 status=variable Vminpu=0.7 yearly=LS_PhaseA daily=LS_PhaseA duty=LS_PhaseA
New Load.263399328_3 Phases= 1 Bus1=263399328.3 kV=7.1996 XFKVA=25.000000 PF= 0.98 status=variable Vminpu=0.7 yearly=LS_PhaseC daily=LS_PhaseC duty=LS_PhaseC
New Load.263702144_3 Phases= 1 Bus1=263702144.3 kV=7.1996 XFKVA=100.000000 PF= 0.98 status=variable Vminpu=0.7 yearly=LS_PhaseC daily=LS_PhaseC duty=LS_PhaseC
New Load.491242301_1 Phases= 1 Bus1=491242301.1 kV=7.1996 XFKVA=25.000000 PF= 0.98 status=variable Vminpu=0.7 yearly=LS_PhaseA daily=LS_PhaseA duty=LS_PhaseA
New Load.263399292_3 Phases= 1 Bus1=263399292.3 kV=7.1996 XFKVA=25.000000 PF= 0.98 status=variable Vminpu=0.7 yearly=LS_PhaseC daily=LS_PhaseC duty=LS_PhaseC
New Load.258405893_3 Phases= 1 Bus1=258405893.3 kV=7.1996 XFKVA=25.000000 PF= 0.98 status=variable Vminpu=0.7 yearly=LS_PhaseC daily=LS_PhaseC duty=LS_PhaseC
New Load.258443544_3 Phases= 1 Bus1=258443544.3 kV=7.1996 XFKVA=25.000000 PF= 0.98 status=variable Vminpu=0.7 yearly=LS_PhaseC daily=LS_PhaseC duty=LS_PhaseC
New Load.258443534_3 Phases= 1 Bus1=258443534.3 kV=7.1996 XFKVA=10.000000 PF= 0.98 status=variable Vminpu=0.7 yearly=LS_PhaseC daily=LS_PhaseC duty=LS_PhaseC
New Load.258443599_3 Phases= 1 Bus1=258443599.3 kV=7.1996 XFKVA=25.000000 PF= 0.98 status=variable Vminpu=0.7 yearly=LS_PhaseC daily=LS_PhaseC duty=LS_PhaseC
New Load.258443674_2 Phases= 1 Bus1=258443674.2 kV=7.1996 XFKVA=25.000000 PF= 0.98 status=variable Vminpu=0.7 yearly=LS_PhaseB daily=LS_PhaseB duty=LS_PhaseB
New Load.258405888_1 Phases= 1 Bus1=258405888.1 kV=7.1996 XFKVA=25.000000 PF= 0.98 status=variable Vminpu=0.7 yearly=LS_PhaseA daily=LS_PhaseA duty=LS_PhaseA
New Load.258443866_3 Phases= 1 Bus1=258443866.3 kV=7.1996 XFKVA=25.000000 PF= 0.98 status=variable Vminpu=0.7 yearly=LS_PhaseC daily=LS_PhaseC duty=LS_PhaseC
New Load.263399310_3 Phases= 1 Bus1=263399310.3 kV=7.1996 XFKVA=25.000000 PF= 0.98 status=variable Vminpu=0.7 yearly=LS_PhaseC daily=LS_PhaseC duty=LS_PhaseC
New Load.258443352_3 Phases= 1 Bus1=258443352.3 kV=7.1996 XFKVA=25.000000 PF= 0.98 status=variable Vminpu=0.7 yearly=LS_PhaseC daily=LS_PhaseC duty=LS_PhaseC
New Load.258406677_3 Phases= 1 Bus1=258406677.3 kV=7.1996 XFKVA=50.000000 PF= 0.98 status=variable Vminpu=0.7 yearly=LS_PhaseC daily=LS_PhaseC duty=LS_PhaseC
New Load.263399391_3 Phases= 1 Bus1=263399391.3 kV=7.1996 XFKVA=25.000000 PF= 0.98 status=variable Vminpu=0.7 yearly=LS_PhaseC daily=LS_PhaseC duty=LS_PhaseC
New Load.258405913_3 Phases= 1 Bus1=258405913.3 kV=7.1996 XFKVA=25.000000 PF= 0.98 status=variable Vminpu=0.7 yearly=LS_PhaseC daily=LS_PhaseC duty=LS_PhaseC
New Load.258443781_3 Phases= 1 Bus1=258443781.3 kV=7.1996 XFKVA=25.000000 PF= 0.98 status=variable Vminpu=0.7 yearly=LS_PhaseC daily=LS_PhaseC duty=LS_PhaseC
New Load.258405983_2 Phases= 1 Bus1=258405983.2 kV=7.1996 XFKVA=10.000000 PF= 0.98 status=variable Vminpu=0.7 yearly=LS_PhaseB daily=LS_PhaseB duty=LS_PhaseB
New Load.258425075_1 Phases= 1 Bus1=258425075.1 kV=7.1996 XFKVA=10.000000 PF= 0.98 status=variable Vminpu=0.7 yearly=LS_PhaseA daily=LS_PhaseA duty=LS_PhaseA
New Load.258425075_2 Phases= 1 Bus1=258425075.2 kV=7.1996 XFKVA=10.000000 PF= 0.98 status=variable Vminpu=0.7 yearly=LS_PhaseB daily=LS_PhaseB duty=LS_PhaseB
New Load.258425075_3 Phases= 1 Bus1=258425075.3 kV=7.1996 XFKVA=10.000000 PF= 0.98 status=variable Vminpu=0.7 yearly=LS_PhaseC daily=LS_PhaseC duty=LS_PhaseC
New Load.263834523_3 Phases= 1 Bus1=263834523.3 kV=7.1996 XFKVA=25.000000 PF= 0.98 status=variable Vminpu=0.7 yearly=LS_PhaseC daily=LS_PhaseC duty=LS_PhaseC
New Load.258425402_2 Phases= 1 Bus1=258425402.2 kV=7.1996 XFKVA=50.000000 PF= 0.98 status=variable Vminpu=0.7 yearly=LS_PhaseB daily=LS_PhaseB duty=LS_PhaseB
New Load.258443519_3 Phases= 1 Bus1=258443519.3 kV=7.1996 XFKVA=25.000000 PF= 0.98 status=variable Vminpu=0.7 yearly=LS_PhaseC daily=LS_PhaseC duty=LS_PhaseC
New Load.258443786_3 Phases= 1 Bus1=258443786.3 kV=7.1996 XFKVA=25.000000 PF= 0.98 status=variable Vminpu=0.7 yearly=LS_PhaseC daily=LS_PhaseC duty=LS_PhaseC
New Load.258443479_3 Phases= 1 Bus1=258443479.3 kV=7.1996 XFKVA=25.000000 PF= 0.98 status=variable Vminpu=0.7 yearly=LS_PhaseC daily=LS_PhaseC duty=LS_PhaseC
New Load.258426156_3 Phases= 1 Bus1=258426156.3 kV=7.1996 XFKVA=25.000000 PF= 0.98 status=variable Vminpu=0.7 yearly=LS_PhaseC daily=LS_PhaseC duty=LS_PhaseC
New Load.258443402_3 Phases= 1 Bus1=258443402.3 kV=7.1996 XFKVA=15.000000 PF= 0.98 status=variable Vminpu=0.7 yearly=LS_PhaseC daily=LS_PhaseC duty=LS_PhaseC
New Load.258443397_1 Phases= 1 Bus1=258443397.1 kV=7.1996 XFKVA=25.000000 PF= 0.98 status=variable Vminpu=0.7 yearly=LS_PhaseA daily=LS_PhaseA duty=LS_PhaseA
New Load.258405744_2 Phases= 1 Bus1=258405744.2 kV=7.1996 XFKVA=25.000000 PF= 0.98 status=variable Vminpu=0.7 yearly=LS_PhaseB daily=LS_PhaseB duty=LS_PhaseB
New Load.263399193_1 Phases= 1 Bus1=263399193.1 kV=7.1996 XFKVA=25.000000 PF= 0.98 status=variable Vminpu=0.7 yearly=LS_PhaseA daily=LS_PhaseA duty=LS_PhaseA
New Load.258443504_2 Phases= 1 Bus1=258443504.2 kV=7.1996 XFKVA=10.000000 PF= 0.98 status=variable Vminpu=0.7 yearly=LS_PhaseB daily=LS_PhaseB duty=LS_PhaseB
New Load.258443579_1 Phases= 1 Bus1=258443579.1 kV=7.1996 XFKVA=25.000000 PF= 0.98 status=variable Vminpu=0.7 yearly=LS_PhaseA daily=LS_PhaseA duty=LS_PhaseA
New Load.259259891_1 Phases= 1 Bus1=259259891.1 kV=7.1996 XFKVA=15.000000 PF= 0.98 status=variable Vminpu=0.7 yearly=LS_PhaseA daily=LS_PhaseA duty=LS_PhaseA
New Load.264377511_3 Phases= 1 Bus1=264377511.3 kV=7.1996 XFKVA=25.000000 PF= 0.98 status=variable Vminpu=0.7 yearly=LS_PhaseC daily=LS_PhaseC duty=LS_PhaseC
New Load.258426146_2 Phases= 1 Bus1=258426146.2 kV=7.1996 XFKVA=25.000000 PF= 0.98 status=variable Vminpu=0.7 yearly=LS_PhaseB daily=LS_PhaseB duty=LS_PhaseB
New Load.258405687_3 Phases= 1 Bus1=258405687.3 kV=7.1996 XFKVA=25.000000 PF= 0.98 status=variable Vminpu=0.7 yearly=LS_PhaseC daily=LS_PhaseC duty=LS_PhaseC
New Load.258425558_3 Phases= 1 Bus1=258425558.3 kV=7.1996 XFKVA=15.000000 PF= 0.98 status=variable Vminpu=0.7 yearly=LS_PhaseC daily=LS_PhaseC duty=LS_PhaseC
New Load.258406652_3 Phases= 1 Bus1=258406652.3 kV=7.1996 XFKVA=50.000000 PF= 0.98 status=variable Vminpu=0.7 yearly=LS_PhaseC daily=LS_PhaseC duty=LS_PhaseC
New Load.258406657_3 Phases= 1 Bus1=258406657.3 kV=7.1996 XFKVA=50.000000 PF= 0.98 status=variable Vminpu=0.7 yearly=LS_PhaseC daily=LS_PhaseC duty=LS_PhaseC
New Load.263981657_2 Phases= 1 Bus1=263981657.2 kV=7.1996 XFKVA=25.000000 PF= 0.98 status=variable Vminpu=0.7 yearly=LS_PhaseB daily=LS_PhaseB duty=LS_PhaseB
New Load.450041331_1 Phases= 1 Bus1=450041331.1 kV=7.1996 XFKVA=25.000000 PF= 0.98 status=variable Vminpu=0.7 yearly=LS_PhaseA daily=LS_PhaseA duty=LS_PhaseA
New Load.258425665_1 Phases= 1 Bus1=258425665.1 kV=7.1996 XFKVA=50.000000 PF= 0.98 status=variable Vminpu=0.7 yearly=LS_PhaseA daily=LS_PhaseA duty=LS_PhaseA
New Load.258444239_2 Phases= 1 Bus1=258444239.2 kV=7.1996 XFKVA=25.000000 PF= 0.98 status=variable Vminpu=0.7 yearly=LS_PhaseB daily=LS_PhaseB duty=LS_PhaseB
New Load.258425760_1 Phases= 1 Bus1=258425760.1 kV=7.1996 XFKVA=50.000000 PF= 0.98 status=variable Vminpu=0.7 yearly=LS_PhaseA daily=LS_PhaseA duty=LS_PhaseA
New Load.258425760_3 Phases= 1 Bus1=258425760.3 kV=7.1996 XFKVA=50.000000 PF= 0.98 status=variable Vminpu=0.7 yearly=LS_PhaseC daily=LS_PhaseC duty=LS_PhaseC
New Load.261433671_3 Phases= 1 Bus1=261433671.3 kV=7.1996 XFKVA=75.000000 PF= 0.98 status=variable Vminpu=0.7 yearly=LS_PhaseC daily=LS_PhaseC duty=LS_PhaseC
New Load.259589130_1 Phases= 1 Bus1=259589130.1 kV=7.1996 XFKVA=50.000000 PF= 0.98 status=variable Vminpu=0.7 yearly=LS_PhaseA daily=LS_PhaseA duty=LS_PhaseA
New Load.259589130_2 Phases= 1 Bus1=259589130.2 kV=7.1996 XFKVA=50.000000 PF= 0.98 status=variable Vminpu=0.7 yearly=LS_PhaseB daily=LS_PhaseB duty=LS_PhaseB
New Load.259589130_3 Phases= 1 Bus1=259589130.3 kV=7.1996 XFKVA=50.000000 PF= 0.98 status=variable Vminpu=0.7 yearly=LS_PhaseC daily=LS_PhaseC duty=LS_PhaseC
New Load.258425967_2 Phases= 1 Bus1=258425967.2 kV=7.1996 XFKVA=10.000000 PF= 0.98 status=variable Vminpu=0.7 yearly=LS_PhaseB daily=LS_PhaseB duty=LS_PhaseB
New Load.258444164_2 Phases= 1 Bus1=258444164.2 kV=7.1996 XFKVA=25.000000 PF= 0.98 status=variable Vminpu=0.7 yearly=LS_PhaseB daily=LS_PhaseB duty=LS_PhaseB
New Load.258444224_2 Phases= 1 Bus1=258444224.2 kV=7.1996 XFKVA=25.000000 PF= 0.98 status=variable Vminpu=0.7 yearly=LS_PhaseB daily=LS_PhaseB duty=LS_PhaseB
New Load.258426059_2 Phases= 1 Bus1=258426059.2 kV=7.1996 XFKVA=25.000000 PF= 0.98 status=variable Vminpu=0.7 yearly=LS_PhaseB daily=LS_PhaseB duty=LS_PhaseB
New Load.258425640_2 Phases= 1 Bus1=258425640.2 kV=7.1996 XFKVA=25.000000 PF= 0.98 status=variable Vminpu=0.7 yearly=LS_PhaseB daily=LS_PhaseB duty=LS_PhaseB
New Load.258444163_2 Phases= 1 Bus1=258444163.2 kV=7.1996 XFKVA=25.000000 PF= 0.98 status=variable Vminpu=0.7 yearly=LS_PhaseB daily=LS_PhaseB duty=LS_PhaseB
New Load.258444219_2 Phases= 1 Bus1=258444219.2 kV=7.1996 XFKVA=25.000000 PF= 0.98 status=variable Vminpu=0.7 yearly=LS_PhaseB daily=LS_PhaseB duty=LS_PhaseB
New Load.258443865_3 Phases= 1 Bus1=258443865.3 kV=7.1996 XFKVA=25.000000 PF= 0.98 status=variable Vminpu=0.7 yearly=LS_PhaseC daily=LS_PhaseC duty=LS_PhaseC
New Load.264146153_1 Phases= 1 Bus1=264146153.1 kV=7.1996 XFKVA=25.000000 PF= 0.98 status=variable Vminpu=0.7 yearly=LS_PhaseA daily=LS_PhaseA duty=LS_PhaseA
New Load.258425427_2 Phases= 1 Bus1=258425427.2 kV=7.1996 XFKVA=25.000000 PF= 0.98 status=variable Vminpu=0.7 yearly=LS_PhaseB daily=LS_PhaseB duty=LS_PhaseB
New Load.258425740_2 Phases= 1 Bus1=258425740.2 kV=7.1996 XFKVA=25.000000 PF= 0.98 status=variable Vminpu=0.7 yearly=LS_PhaseB daily=LS_PhaseB duty=LS_PhaseB
New Load.258425563_3 Phases= 1 Bus1=258425563.3 kV=7.1996 XFKVA=25.000000 PF= 0.98 status=variable Vminpu=0.7 yearly=LS_PhaseC daily=LS_PhaseC duty=LS_PhaseC
New Load.263391463_3 Phases= 1 Bus1=263391463.3 kV=7.1996 XFKVA=25.000000 PF= 0.98 status=variable Vminpu=0.7 yearly=LS_PhaseC daily=LS_PhaseC duty=LS_PhaseC
New Load.258425749_2 Phases= 1 Bus1=258425749.2 kV=7.1996 XFKVA=25.000000 PF= 0.98 status=variable Vminpu=0.7 yearly=LS_PhaseB daily=LS_PhaseB duty=LS_PhaseB
New Load.258406530_3 Phases= 1 Bus1=258406530.3 kV=7.1996 XFKVA=25.000000 PF= 0.98 status=variable Vminpu=0.7 yearly=LS_PhaseC daily=LS_PhaseC duty=LS_PhaseC
New Load.258425562_3 Phases= 1 Bus1=258425562.3 kV=7.1996 XFKVA=50.000000 PF= 0.98 status=variable Vminpu=0.7 yearly=LS_PhaseC daily=LS_PhaseC duty=LS_PhaseC
New Load.258426044_1 Phases= 1 Bus1=258426044.1 kV=7.1996 XFKVA=25.000000 PF= 0.98 status=variable Vminpu=0.7 yearly=LS_PhaseA daily=LS_PhaseA duty=LS_PhaseA
New Load.258426044_2 Phases= 1 Bus1=258426044.2 kV=7.1996 XFKVA=25.000000 PF= 0.98 status=variable Vminpu=0.7 yearly=LS_PhaseB daily=LS_PhaseB duty=LS_PhaseB
New Load.258426044_3 Phases= 1 Bus1=258426044.3 kV=7.1996 XFKVA=25.000000 PF= 0.98 status=variable Vminpu=0.7 yearly=LS_PhaseC daily=LS_PhaseC duty=LS_PhaseC
New Load.258443961_3 Phases= 1 Bus1=258443961.3 kV=7.1996 XFKVA=25.000000 PF= 0.98 status=variable Vminpu=0.7 yearly=LS_PhaseC daily=LS_PhaseC duty=LS_PhaseC
New Load.258444139_2 Phases= 1 Bus1=258444139.2 kV=7.1996 XFKVA=25.000000 PF= 0.98 status=variable Vminpu=0.7 yearly=LS_PhaseB daily=LS_PhaseB duty=LS_PhaseB
New Load.258444208_1 Phases= 1 Bus1=258444208.1 kV=7.1996 XFKVA=10.000000 PF= 0.98 status=variable Vminpu=0.7 yearly=LS_PhaseA daily=LS_PhaseA duty=LS_PhaseA
New Load.258405662_3 Phases= 1 Bus1=258405662.3 kV=7.1996 XFKVA=25.000000 PF= 0.98 status=variable Vminpu=0.7 yearly=LS_PhaseC daily=LS_PhaseC duty=LS_PhaseC
New Load.258425625_1 Phases= 1 Bus1=258425625.1 kV=7.1996 XFKVA=25.000000 PF= 0.98 status=variable Vminpu=0.7 yearly=LS_PhaseA daily=LS_PhaseA duty=LS_PhaseA
New Load.258406438_1 Phases= 1 Bus1=258406438.1 kV=7.1996 XFKVA=25.000000 PF= 0.98 status=variable Vminpu=0.7 yearly=LS_PhaseA daily=LS_PhaseA duty=LS_PhaseA
New Load.258444139_1 Phases= 1 Bus1=258444139.1 kV=7.1996 XFKVA=25.000000 PF= 0.98 status=variable Vminpu=0.7 yearly=LS_PhaseA daily=LS_PhaseA duty=LS_PhaseA
New Load.258444199_1 Phases= 1 Bus1=258444199.1 kV=7.1996 XFKVA=50.000000 PF= 0.98 status=variable Vminpu=0.7 yearly=LS_PhaseA daily=LS_PhaseA duty=LS_PhaseA
New Load.258444199_2 Phases= 1 Bus1=258444199.2 kV=7.1996 XFKVA=50.000000 PF= 0.98 status=variable Vminpu=0.7 yearly=LS_PhaseB daily=LS_PhaseB duty=LS_PhaseB
New Load.258444199_3 Phases= 1 Bus1=258444199.3 kV=7.1996 XFKVA=50.000000 PF= 0.98 status=variable Vminpu=0.7 yearly=LS_PhaseC daily=LS_PhaseC duty=LS_PhaseC
New Load.258405657_2 Phases= 1 Bus1=258405657.2 kV=7.1996 XFKVA=50.000000 PF= 0.98 status=variable Vminpu=0.7 yearly=LS_PhaseB daily=LS_PhaseB duty=LS_PhaseB
New Load.258425373_2 Phases= 1 Bus1=258425373.2 kV=7.1996 XFKVA=15.000000 PF= 0.98 status=variable Vminpu=0.7 yearly=LS_PhaseB daily=LS_PhaseB duty=LS_PhaseB
New Load.258426111_3 Phases= 1 Bus1=258426111.3 kV=7.1996 XFKVA=25.000000 PF= 0.98 status=variable Vminpu=0.7 yearly=LS_PhaseC daily=LS_PhaseC duty=LS_PhaseC
New Load.263391445_3 Phases= 1 Bus1=263391445.3 kV=7.1996 XFKVA=25.000000 PF= 0.98 status=variable Vminpu=0.7 yearly=LS_PhaseC daily=LS_PhaseC duty=LS_PhaseC
New Load.258425259_3 Phases= 1 Bus1=258425259.3 kV=7.1996 XFKVA=25.000000 PF= 0.98 status=variable Vminpu=0.7 yearly=LS_PhaseC daily=LS_PhaseC duty=LS_PhaseC
New Load.258443841_3 Phases= 1 Bus1=258443841.3 kV=7.1996 XFKVA=25.000000 PF= 0.98 status=variable Vminpu=0.7 yearly=LS_PhaseC daily=LS_PhaseC duty=LS_PhaseC
New Load.258443372_3 Phases= 1 Bus1=258443372.3 kV=7.1996 XFKVA=25.000000 PF= 0.98 status=variable Vminpu=0.7 yearly=LS_PhaseC daily=LS_PhaseC duty=LS_PhaseC
New Load.258444021_3 Phases= 1 Bus1=258444021.3 kV=7.1996 XFKVA=25.000000 PF= 0.98 status=variable Vminpu=0.7 yearly=LS_PhaseC daily=LS_PhaseC duty=LS_PhaseC
New Load.263391562_3 Phases= 1 Bus1=263391562.3 kV=7.1996 XFKVA=50.000000 PF= 0.98 status=variable Vminpu=0.7 yearly=LS_PhaseC daily=LS_PhaseC duty=LS_PhaseC
New Load.258425720_3 Phases= 1 Bus1=258425720.3 kV=7.1996 XFKVA=25.000000 PF= 0.98 status=variable Vminpu=0.7 yearly=LS_PhaseC daily=LS_PhaseC duty=LS_PhaseC
New Load.258443966_3 Phases= 1 Bus1=258443966.3 kV=7.1996 XFKVA=25.000000 PF= 0.98 status=variable Vminpu=0.7 yearly=LS_PhaseC daily=LS_PhaseC duty=LS_PhaseC
New Load.258406540_3 Phases= 1 Bus1=258406540.3 kV=7.1996 XFKVA=25.000000 PF= 0.98 status=variable Vminpu=0.7 yearly=LS_PhaseC daily=LS_PhaseC duty=LS_PhaseC
New Load.263782338_1 Phases= 1 Bus1=263782338.1 kV=7.1996 XFKVA=50.000000 PF= 0.98 status=variable Vminpu=0.7 yearly=LS_PhaseA daily=LS_PhaseA duty=LS_PhaseA
New Load.258406677_2 Phases= 1 Bus1=258406677.2 kV=7.1996 XFKVA=37.500000 PF= 0.98 status=variable Vminpu=0.7 yearly=LS_PhaseB daily=LS_PhaseB duty=LS_PhaseB
New Load.258406423_2 Phases= 1 Bus1=258406423.2 kV=7.1996 XFKVA=25.000000 PF= 0.98 status=variable Vminpu=0.7 yearly=LS_PhaseB daily=LS_PhaseB duty=LS_PhaseB
New Load.260981170_3 Phases= 1 Bus1=260981170.3 kV=7.1996 XFKVA=75.000000 PF= 0.98 status=variable Vminpu=0.7 yearly=LS_PhaseC daily=LS_PhaseC duty=LS_PhaseC
New Load.258405764_2 Phases= 1 Bus1=258405764.2 kV=7.1996 XFKVA=25.000000 PF= 0.98 status=variable Vminpu=0.7 yearly=LS_PhaseB daily=LS_PhaseB duty=LS_PhaseB
New Load.258426136_2 Phases= 1 Bus1=258426136.2 kV=7.1996 XFKVA=25.000000 PF= 0.98 status=variable Vminpu=0.7 yearly=LS_PhaseB daily=LS_PhaseB duty=LS_PhaseB
New Load.260663780_1 Phases= 1 Bus1=260663780.1 kV=7.1996 XFKVA=50.000000 PF= 0.98 status=variable Vminpu=0.7 yearly=LS_PhaseA daily=LS_PhaseA duty=LS_PhaseA
New Load.384503022_1 Phases= 1 Bus1=384503022.1 kV=7.1996 XFKVA=25.000000 PF= 0.98 status=variable Vminpu=0.7 yearly=LS_PhaseA daily=LS_PhaseA duty=LS_PhaseA
New Load.258425725_2 Phases= 1 Bus1=258425725.2 kV=7.1996 XFKVA=25.000000 PF= 0.98 status=variable Vminpu=0.7 yearly=LS_PhaseB daily=LS_PhaseB duty=LS_PhaseB
New Load.258443836_3 Phases= 1 Bus1=258443836.3 kV=7.1996 XFKVA=50.000000 PF= 0.98 status=variable Vminpu=0.7 yearly=LS_PhaseC daily=LS_PhaseC duty=LS_PhaseC
New Load.258425527_3 Phases= 1 Bus1=258425527.3 kV=7.1996 XFKVA=25.000000 PF= 0.98 status=variable Vminpu=0.7 yearly=LS_PhaseC daily=LS_PhaseC duty=LS_PhaseC
New Load.258406358_1 Phases= 1 Bus1=258406358.1 kV=7.1996 XFKVA=25.000000 PF= 0.98 status=variable Vminpu=0.7 yearly=LS_PhaseA daily=LS_PhaseA duty=LS_PhaseA
New Load.258406243_3 Phases= 1 Bus1=258406243.3 kV=7.1996 XFKVA=25.000000 PF= 0.98 status=variable Vminpu=0.7 yearly=LS_PhaseC daily=LS_PhaseC duty=LS_PhaseC
New Load.258426024_1 Phases= 1 Bus1=258426024.1 kV=7.1996 XFKVA=25.000000 PF= 0.98 status=variable Vminpu=0.7 yearly=LS_PhaseA daily=LS_PhaseA duty=LS_PhaseA
New Load.699612980_2 Phases= 1 Bus1=699612980.2 kV=7.1996 XFKVA=25.000000 PF= 0.98 status=variable Vminpu=0.7 yearly=LS_PhaseB daily=LS_PhaseB duty=LS_PhaseB
New Load.258425680_1 Phases= 1 Bus1=258425680.1 kV=7.1996 XFKVA=10.000000 PF= 0.98 status=variable Vminpu=0.7 yearly=LS_PhaseA daily=LS_PhaseA duty=LS_PhaseA
...
